<?xml version="1.0"?>

<!-- generated on Wed Nov 30 00:25:38 2011 by SUMO duarouter Version 0.13.0
<?xml version="1.0" encoding="iso-8859-1"?>

<configuration xmlns:xsi="http://www.w3.org/2001/XMLSchema-instance" xsi:noNamespaceSchemaLocation="http://sumo.sf.net/xsd/duarouterConfiguration.xsd">

    <input>
        <net-file value="/media/win/Users/Anderson/Dropbox/UFRGS/ti/trafficNets/sumo/testnet/ti.net.xml"/>
        <trip-files value="/home/anderson/sumo/tools/trip/trips.trips.xml"/>
    </input>

    <output>
        <output-file value="ti.rou.xml"/>
    </output>

    <processing>
        <ignore-errors value="true"/>
    </processing>

</configuration>
-->

<routes xmlns:xsi="http://www.w3.org/2001/XMLSchema-instance" xsi:noNamespaceSchemaLocation="http://sumo.sf.net/xsd/routes_file.xsd">
    <vehicle id="t0" depart="0.00">
        <route edges="center/north"/>
    </vehicle>
    <vehicle id="t1" depart="1.00">
        <route edges="center/east east/center center/west west/center center/south south/center"/>
    </vehicle>
    <vehicle id="t3" depart="3.00">
        <route edges="center/north"/>
    </vehicle>
    <vehicle id="t6" depart="6.00">
        <route edges="south/center center/north north/center center/south"/>
    </vehicle>
    <vehicle id="t9" depart="9.00">
        <route edges="center/west west/center center/east east/center center/nw"/>
    </vehicle>
    <vehicle id="t12" depart="12.00">
        <route edges="center/north"/>
    </vehicle>
    <vehicle id="t13" depart="13.00">
        <route edges="east/center center/west west/center center/south south/center center/north"/>
    </vehicle>
    <vehicle id="t14" depart="14.00">
        <route edges="center/south south/center"/>
    </vehicle>
    <vehicle id="t20" depart="20.00">
        <route edges="center/south south/center center/north north/center"/>
    </vehicle>
    <vehicle id="t21" depart="21.00">
        <route edges="center/west west/center center/east east/center center/nw"/>
    </vehicle>
    <vehicle id="t24" depart="24.00">
        <route edges="west/center center/south south/center center/north north/center"/>
    </vehicle>
    <vehicle id="t27" depart="27.00">
        <route edges="south/center center/north"/>
    </vehicle>
    <vehicle id="t28" depart="28.00">
        <route edges="east/center center/west west/center center/south"/>
    </vehicle>
    <vehicle id="t30" depart="30.00">
        <route edges="center/east east/center center/west west/center"/>
    </vehicle>
    <vehicle id="t31" depart="31.00">
        <route edges="center/south south/center center/north"/>
    </vehicle>
    <vehicle id="t32" depart="32.00">
        <route edges="east/center center/west west/center center/south south/center center/north"/>
    </vehicle>
    <vehicle id="t33" depart="33.00">
        <route edges="north/center center/south"/>
    </vehicle>
    <vehicle id="t34" depart="34.00">
        <route edges="south/center center/north north/center center/south"/>
    </vehicle>
    <vehicle id="t35" depart="35.00">
        <route edges="center/south south/center center/north"/>
    </vehicle>
    <vehicle id="t37" depart="37.00">
        <route edges="west/center center/east east/center center/nw"/>
    </vehicle>
    <vehicle id="t38" depart="38.00">
        <route edges="east/center center/west west/center center/south"/>
    </vehicle>
    <vehicle id="t40" depart="40.00">
        <route edges="west/center"/>
    </vehicle>
    <vehicle id="t41" depart="41.00">
        <route edges="north/center"/>
    </vehicle>
    <vehicle id="t42" depart="42.00">
        <route edges="center/west west/center center/east east/center center/nw"/>
    </vehicle>
    <vehicle id="t43" depart="43.00">
        <route edges="center/west west/center center/south south/center center/north"/>
    </vehicle>
    <vehicle id="t47" depart="47.00">
        <route edges="west/center center/south south/center center/north"/>
    </vehicle>
    <vehicle id="t49" depart="49.00">
        <route edges="west/center center/south"/>
    </vehicle>
    <vehicle id="t50" depart="50.00">
        <route edges="center/west"/>
    </vehicle>
    <vehicle id="t55" depart="55.00">
        <route edges="center/west west/center center/east east/center center/nw"/>
    </vehicle>
    <vehicle id="t57" depart="57.00">
        <route edges="center/east east/center center/west"/>
    </vehicle>
    <vehicle id="t60" depart="60.00">
        <route edges="east/center center/west west/center center/south"/>
    </vehicle>
    <vehicle id="t61" depart="61.00">
        <route edges="center/east east/center center/west"/>
    </vehicle>
    <vehicle id="t62" depart="62.00">
        <route edges="west/center center/east east/center center/west"/>
    </vehicle>
    <vehicle id="t64" depart="64.00">
        <route edges="center/east east/center center/west"/>
    </vehicle>
    <vehicle id="t65" depart="65.00">
        <route edges="east/center center/nw"/>
    </vehicle>
    <vehicle id="t67" depart="67.00">
        <route edges="center/west west/center center/south"/>
    </vehicle>
    <vehicle id="t68" depart="68.00">
        <route edges="center/north north/center center/south south/center"/>
    </vehicle>
    <vehicle id="t70" depart="70.00">
        <route edges="west/center"/>
    </vehicle>
    <vehicle id="t72" depart="72.00">
        <route edges="center/west west/center center/south south/center"/>
    </vehicle>
    <vehicle id="t73" depart="73.00">
        <route edges="center/south"/>
    </vehicle>
    <vehicle id="t75" depart="75.00">
        <route edges="center/east east/center center/west west/center center/south"/>
    </vehicle>
    <vehicle id="t77" depart="77.00">
        <route edges="east/center center/west west/center"/>
    </vehicle>
    <vehicle id="t79" depart="79.00">
        <route edges="south/center center/north north/center center/south"/>
    </vehicle>
    <vehicle id="t80" depart="80.00">
        <route edges="east/center center/nw"/>
    </vehicle>
    <vehicle id="t81" depart="81.00">
        <route edges="center/east east/center center/west west/center center/south south/center center/north"/>
    </vehicle>
    <vehicle id="t82" depart="82.00">
        <route edges="east/center center/west west/center center/south"/>
    </vehicle>
    <vehicle id="t84" depart="84.00">
        <route edges="east/center center/west west/center center/east"/>
    </vehicle>
    <vehicle id="t85" depart="85.00">
        <route edges="center/west west/center center/south south/center center/north north/center"/>
    </vehicle>
    <vehicle id="t88" depart="88.00">
        <route edges="center/north"/>
    </vehicle>
    <vehicle id="t89" depart="89.00">
        <route edges="center/nw"/>
    </vehicle>
    <vehicle id="t91" depart="91.00">
        <route edges="center/west west/center"/>
    </vehicle>
    <vehicle id="t93" depart="93.00">
        <route edges="center/west west/center center/east east/center center/nw"/>
    </vehicle>
    <vehicle id="t94" depart="94.00">
        <route edges="center/west west/center center/east east/center center/nw"/>
    </vehicle>
    <vehicle id="t95" depart="95.00">
        <route edges="west/center center/south south/center"/>
    </vehicle>
    <vehicle id="t96" depart="96.00">
        <route edges="west/center center/south"/>
    </vehicle>
    <vehicle id="t99" depart="99.00">
        <route edges="center/east east/center center/west west/center"/>
    </vehicle>
    <vehicle id="t100" depart="100.00">
        <route edges="west/center center/south south/center center/north north/center"/>
    </vehicle>
    <vehicle id="t101" depart="101.00">
        <route edges="center/west west/center"/>
    </vehicle>
    <vehicle id="t106" depart="106.00">
        <route edges="east/center"/>
    </vehicle>
    <vehicle id="t107" depart="107.00">
        <route edges="center/nw"/>
    </vehicle>
    <vehicle id="t108" depart="108.00">
        <route edges="south/center center/north"/>
    </vehicle>
    <vehicle id="t109" depart="109.00">
        <route edges="center/west west/center center/south south/center center/north"/>
    </vehicle>
    <vehicle id="t110" depart="110.00">
        <route edges="center/north north/center center/south south/center"/>
    </vehicle>
    <vehicle id="t111" depart="111.00">
        <route edges="se/center center/nw"/>
    </vehicle>
    <vehicle id="t112" depart="112.00">
        <route edges="north/center center/south"/>
    </vehicle>
    <vehicle id="t116" depart="116.00">
        <route edges="west/center center/south south/center center/north"/>
    </vehicle>
    <vehicle id="t117" depart="117.00">
        <route edges="west/center center/south"/>
    </vehicle>
    <vehicle id="t119" depart="119.00">
        <route edges="west/center center/east"/>
    </vehicle>
    <vehicle id="t120" depart="120.00">
        <route edges="center/north north/center center/south"/>
    </vehicle>
    <vehicle id="t122" depart="122.00">
        <route edges="center/south"/>
    </vehicle>
    <vehicle id="t128" depart="128.00">
        <route edges="center/east east/center center/west west/center center/south south/center center/north north/center"/>
    </vehicle>
    <vehicle id="t129" depart="129.00">
        <route edges="north/center center/south south/center center/north"/>
    </vehicle>
    <vehicle id="t130" depart="130.00">
        <route edges="east/center center/west"/>
    </vehicle>
    <vehicle id="t131" depart="131.00">
        <route edges="center/west west/center center/east"/>
    </vehicle>
    <vehicle id="t132" depart="132.00">
        <route edges="center/south south/center center/north north/center"/>
    </vehicle>
    <vehicle id="t136" depart="136.00">
        <route edges="center/east east/center center/west west/center center/south"/>
    </vehicle>
    <vehicle id="t137" depart="137.00">
        <route edges="west/center center/south south/center center/north"/>
    </vehicle>
    <vehicle id="t138" depart="138.00">
        <route edges="north/center center/south south/center center/north"/>
    </vehicle>
    <vehicle id="t139" depart="139.00">
        <route edges="east/center center/west west/center center/east"/>
    </vehicle>
    <vehicle id="t140" depart="140.00">
        <route edges="center/west west/center center/east"/>
    </vehicle>
    <vehicle id="t141" depart="141.00">
        <route edges="west/center center/south south/center center/north north/center"/>
    </vehicle>
    <vehicle id="t142" depart="142.00">
        <route edges="east/center center/nw"/>
    </vehicle>
    <vehicle id="t143" depart="143.00">
        <route edges="center/east east/center center/west"/>
    </vehicle>
    <vehicle id="t144" depart="144.00">
        <route edges="west/center center/east east/center"/>
    </vehicle>
    <vehicle id="t145" depart="145.00">
        <route edges="center/west west/center center/east east/center"/>
    </vehicle>
    <vehicle id="t146" depart="146.00">
        <route edges="center/west"/>
    </vehicle>
    <vehicle id="t149" depart="149.00">
        <route edges="west/center center/east east/center center/west"/>
    </vehicle>
    <vehicle id="t150" depart="150.00">
        <route edges="center/south"/>
    </vehicle>
    <vehicle id="t151" depart="151.00">
        <route edges="se/center center/nw"/>
    </vehicle>
    <vehicle id="t152" depart="152.00">
        <route edges="center/nw"/>
    </vehicle>
    <vehicle id="t153" depart="153.00">
        <route edges="center/north"/>
    </vehicle>
    <vehicle id="t154" depart="154.00">
        <route edges="center/south south/center center/north"/>
    </vehicle>
    <vehicle id="t156" depart="156.00">
        <route edges="east/center center/west"/>
    </vehicle>
    <vehicle id="t158" depart="158.00">
        <route edges="east/center center/west"/>
    </vehicle>
    <vehicle id="t159" depart="159.00">
        <route edges="center/east east/center center/nw"/>
    </vehicle>
    <vehicle id="t165" depart="165.00">
        <route edges="center/east east/center"/>
    </vehicle>
    <vehicle id="t166" depart="166.00">
        <route edges="center/west west/center"/>
    </vehicle>
    <vehicle id="t167" depart="167.00">
        <route edges="south/center center/north"/>
    </vehicle>
    <vehicle id="t168" depart="168.00">
        <route edges="center/east east/center center/west"/>
    </vehicle>
    <vehicle id="t169" depart="169.00">
        <route edges="center/east east/center center/west west/center center/south south/center"/>
    </vehicle>
    <vehicle id="t175" depart="175.00">
        <route edges="east/center center/west west/center center/south south/center"/>
    </vehicle>
    <vehicle id="t176" depart="176.00">
        <route edges="center/south south/center center/north north/center"/>
    </vehicle>
    <vehicle id="t177" depart="177.00">
        <route edges="center/north north/center center/south"/>
    </vehicle>
    <vehicle id="t179" depart="179.00">
        <route edges="west/center center/south"/>
    </vehicle>
    <vehicle id="t180" depart="180.00">
        <route edges="center/north"/>
    </vehicle>
    <vehicle id="t181" depart="181.00">
        <route edges="center/west west/center center/east"/>
    </vehicle>
    <vehicle id="t182" depart="182.00">
        <route edges="south/center center/north north/center center/south"/>
    </vehicle>
    <vehicle id="t185" depart="185.00">
        <route edges="west/center center/east"/>
    </vehicle>
    <vehicle id="t186" depart="186.00">
        <route edges="south/center center/north north/center"/>
    </vehicle>
    <vehicle id="t187" depart="187.00">
        <route edges="west/center center/south"/>
    </vehicle>
    <vehicle id="t188" depart="188.00">
        <route edges="center/east east/center center/west west/center center/south south/center center/north"/>
    </vehicle>
    <vehicle id="t189" depart="189.00">
        <route edges="east/center"/>
    </vehicle>
    <vehicle id="t190" depart="190.00">
        <route edges="north/center"/>
    </vehicle>
    <vehicle id="t191" depart="191.00">
        <route edges="west/center center/south"/>
    </vehicle>
    <vehicle id="t192" depart="192.00">
        <route edges="west/center center/east"/>
    </vehicle>
    <vehicle id="t196" depart="196.00">
        <route edges="center/east east/center center/west west/center center/south south/center center/north north/center"/>
    </vehicle>
    <vehicle id="t198" depart="198.00">
        <route edges="center/south south/center"/>
    </vehicle>
    <vehicle id="t199" depart="199.00">
        <route edges="center/west west/center center/south south/center"/>
    </vehicle>
    <vehicle id="t201" depart="201.00">
        <route edges="center/west west/center"/>
    </vehicle>
    <vehicle id="t203" depart="203.00">
        <route edges="center/east east/center center/west west/center center/south south/center center/north north/center"/>
    </vehicle>
    <vehicle id="t204" depart="204.00">
        <route edges="east/center center/west west/center center/south south/center center/north"/>
    </vehicle>
    <vehicle id="t207" depart="207.00">
        <route edges="west/center center/east"/>
    </vehicle>
    <vehicle id="t208" depart="208.00">
        <route edges="center/west west/center center/south south/center center/north north/center"/>
    </vehicle>
    <vehicle id="t209" depart="209.00">
        <route edges="center/south south/center"/>
    </vehicle>
    <vehicle id="t211" depart="211.00">
        <route edges="north/center"/>
    </vehicle>
    <vehicle id="t213" depart="213.00">
        <route edges="center/west west/center center/east east/center"/>
    </vehicle>
    <vehicle id="t214" depart="214.00">
        <route edges="center/east east/center center/west west/center center/south"/>
    </vehicle>
    <vehicle id="t218" depart="218.00">
        <route edges="se/center center/nw"/>
    </vehicle>
    <vehicle id="t219" depart="219.00">
        <route edges="west/center center/south south/center center/north"/>
    </vehicle>
    <vehicle id="t220" depart="220.00">
        <route edges="west/center center/south"/>
    </vehicle>
    <vehicle id="t221" depart="221.00">
        <route edges="center/west west/center center/south south/center"/>
    </vehicle>
    <vehicle id="t223" depart="223.00">
        <route edges="east/center center/nw"/>
    </vehicle>
    <vehicle id="t225" depart="225.00">
        <route edges="east/center center/nw"/>
    </vehicle>
    <vehicle id="t226" depart="226.00">
        <route edges="north/center center/south south/center center/north"/>
    </vehicle>
    <vehicle id="t227" depart="227.00">
        <route edges="west/center center/east"/>
    </vehicle>
    <vehicle id="t228" depart="228.00">
        <route edges="west/center center/east"/>
    </vehicle>
    <vehicle id="t232" depart="232.00">
        <route edges="center/east east/center center/nw"/>
    </vehicle>
    <vehicle id="t233" depart="233.00">
        <route edges="center/north north/center center/south"/>
    </vehicle>
    <vehicle id="t234" depart="234.00">
        <route edges="se/center"/>
    </vehicle>
    <vehicle id="t235" depart="235.00">
        <route edges="north/center center/south"/>
    </vehicle>
    <vehicle id="t236" depart="236.00">
        <route edges="west/center center/east"/>
    </vehicle>
    <vehicle id="t239" depart="239.00">
        <route edges="center/west west/center center/south south/center center/north north/center"/>
    </vehicle>
    <vehicle id="t246" depart="246.00">
        <route edges="center/west west/center center/east east/center center/nw"/>
    </vehicle>
    <vehicle id="t247" depart="247.00">
        <route edges="west/center center/south south/center center/north"/>
    </vehicle>
    <vehicle id="t249" depart="249.00">
        <route edges="east/center center/west west/center center/east"/>
    </vehicle>
    <vehicle id="t250" depart="250.00">
        <route edges="center/west west/center center/east"/>
    </vehicle>
    <vehicle id="t252" depart="252.00">
        <route edges="center/west west/center center/south"/>
    </vehicle>
    <vehicle id="t253" depart="253.00">
        <route edges="east/center center/west west/center"/>
    </vehicle>
    <vehicle id="t254" depart="254.00">
        <route edges="east/center center/west west/center center/south south/center center/north"/>
    </vehicle>
    <vehicle id="t255" depart="255.00">
        <route edges="center/south"/>
    </vehicle>
    <vehicle id="t258" depart="258.00">
        <route edges="east/center center/west west/center center/south"/>
    </vehicle>
    <vehicle id="t261" depart="261.00">
        <route edges="center/west west/center center/east east/center center/nw"/>
    </vehicle>
    <vehicle id="t262" depart="262.00">
        <route edges="center/west west/center center/south south/center center/north north/center"/>
    </vehicle>
    <vehicle id="t265" depart="265.00">
        <route edges="east/center center/west west/center center/south south/center"/>
    </vehicle>
    <vehicle id="t266" depart="266.00">
        <route edges="center/west west/center center/south south/center"/>
    </vehicle>
    <vehicle id="t267" depart="267.00">
        <route edges="center/north north/center center/south"/>
    </vehicle>
    <vehicle id="t271" depart="271.00">
        <route edges="center/west west/center"/>
    </vehicle>
    <vehicle id="t272" depart="272.00">
        <route edges="center/west"/>
    </vehicle>
    <vehicle id="t273" depart="273.00">
        <route edges="center/north north/center center/south south/center"/>
    </vehicle>
    <vehicle id="t274" depart="274.00">
        <route edges="north/center"/>
    </vehicle>
    <vehicle id="t275" depart="275.00">
        <route edges="east/center center/west west/center"/>
    </vehicle>
    <vehicle id="t279" depart="279.00">
        <route edges="east/center center/nw"/>
    </vehicle>
    <vehicle id="t280" depart="280.00">
        <route edges="west/center center/south south/center"/>
    </vehicle>
    <vehicle id="t282" depart="282.00">
        <route edges="center/west west/center center/east"/>
    </vehicle>
    <vehicle id="t283" depart="283.00">
        <route edges="center/north north/center"/>
    </vehicle>
    <vehicle id="t291" depart="291.00">
        <route edges="center/east east/center center/nw"/>
    </vehicle>
    <vehicle id="t293" depart="293.00">
        <route edges="center/south south/center center/north north/center"/>
    </vehicle>
    <vehicle id="t294" depart="294.00">
        <route edges="west/center"/>
    </vehicle>
    <vehicle id="t295" depart="295.00">
        <route edges="center/north north/center center/south"/>
    </vehicle>
    <vehicle id="t296" depart="296.00">
        <route edges="center/north north/center center/south"/>
    </vehicle>
    <vehicle id="t299" depart="299.00">
        <route edges="center/south south/center"/>
    </vehicle>
    <vehicle id="t301" depart="301.00">
        <route edges="center/east"/>
    </vehicle>
    <vehicle id="t302" depart="302.00">
        <route edges="south/center center/north"/>
    </vehicle>
    <vehicle id="t305" depart="305.00">
        <route edges="center/east"/>
    </vehicle>
    <vehicle id="t308" depart="308.00">
        <route edges="east/center center/west west/center center/south"/>
    </vehicle>
    <vehicle id="t309" depart="309.00">
        <route edges="east/center center/west west/center center/south"/>
    </vehicle>
    <vehicle id="t315" depart="315.00">
        <route edges="east/center center/west west/center center/south south/center center/north north/center"/>
    </vehicle>
    <vehicle id="t316" depart="316.00">
        <route edges="west/center center/south south/center"/>
    </vehicle>
    <vehicle id="t318" depart="318.00">
        <route edges="east/center center/nw"/>
    </vehicle>
    <vehicle id="t320" depart="320.00">
        <route edges="center/west west/center center/south"/>
    </vehicle>
    <vehicle id="t322" depart="322.00">
        <route edges="west/center center/east"/>
    </vehicle>
    <vehicle id="t326" depart="326.00">
        <route edges="center/west west/center center/south south/center center/north"/>
    </vehicle>
    <vehicle id="t328" depart="328.00">
        <route edges="east/center center/west"/>
    </vehicle>
    <vehicle id="t332" depart="332.00">
        <route edges="center/west west/center"/>
    </vehicle>
    <vehicle id="t334" depart="334.00">
        <route edges="east/center center/west west/center center/east"/>
    </vehicle>
    <vehicle id="t335" depart="335.00">
        <route edges="east/center center/west west/center center/south south/center center/north"/>
    </vehicle>
    <vehicle id="t338" depart="338.00">
        <route edges="center/nw"/>
    </vehicle>
    <vehicle id="t339" depart="339.00">
        <route edges="west/center center/east east/center center/west"/>
    </vehicle>
    <vehicle id="t340" depart="340.00">
        <route edges="center/north north/center"/>
    </vehicle>
    <vehicle id="t341" depart="341.00">
        <route edges="east/center center/west west/center center/south south/center center/north north/center"/>
    </vehicle>
    <vehicle id="t342" depart="342.00">
        <route edges="west/center center/east east/center"/>
    </vehicle>
    <vehicle id="t343" depart="343.00">
        <route edges="center/west west/center center/east east/center"/>
    </vehicle>
    <vehicle id="t345" depart="345.00">
        <route edges="center/east east/center center/west"/>
    </vehicle>
    <vehicle id="t349" depart="349.00">
        <route edges="center/west west/center"/>
    </vehicle>
    <vehicle id="t350" depart="350.00">
        <route edges="center/west"/>
    </vehicle>
    <vehicle id="t353" depart="353.00">
        <route edges="center/south south/center"/>
    </vehicle>
    <vehicle id="t356" depart="356.00">
        <route edges="west/center center/south south/center center/north north/center"/>
    </vehicle>
    <vehicle id="t357" depart="357.00">
        <route edges="north/center center/south south/center"/>
    </vehicle>
    <vehicle id="t358" depart="358.00">
        <route edges="center/east east/center center/west west/center center/south south/center"/>
    </vehicle>
    <vehicle id="t360" depart="360.00">
        <route edges="center/east east/center center/west west/center center/south south/center"/>
    </vehicle>
    <vehicle id="t361" depart="361.00">
        <route edges="center/west west/center center/south south/center center/north"/>
    </vehicle>
    <vehicle id="t362" depart="362.00">
        <route edges="west/center center/east"/>
    </vehicle>
    <vehicle id="t365" depart="365.00">
        <route edges="west/center center/east"/>
    </vehicle>
    <vehicle id="t366" depart="366.00">
        <route edges="center/east east/center center/nw"/>
    </vehicle>
    <vehicle id="t370" depart="370.00">
        <route edges="west/center center/east east/center center/nw"/>
    </vehicle>
    <vehicle id="t372" depart="372.00">
        <route edges="east/center center/west west/center center/east"/>
    </vehicle>
    <vehicle id="t374" depart="374.00">
        <route edges="center/west west/center center/east east/center center/nw"/>
    </vehicle>
    <vehicle id="t375" depart="375.00">
        <route edges="center/west west/center center/east east/center"/>
    </vehicle>
    <vehicle id="t376" depart="376.00">
        <route edges="center/nw"/>
    </vehicle>
    <vehicle id="t377" depart="377.00">
        <route edges="center/south south/center center/north north/center"/>
    </vehicle>
    <vehicle id="t378" depart="378.00">
        <route edges="east/center center/west west/center center/south"/>
    </vehicle>
    <vehicle id="t379" depart="379.00">
        <route edges="center/west west/center center/south"/>
    </vehicle>
    <vehicle id="t382" depart="382.00">
        <route edges="center/east east/center center/nw"/>
    </vehicle>
    <vehicle id="t385" depart="385.00">
        <route edges="center/south"/>
    </vehicle>
    <vehicle id="t386" depart="386.00">
        <route edges="center/west west/center center/south"/>
    </vehicle>
    <vehicle id="t387" depart="387.00">
        <route edges="east/center center/west west/center center/south south/center center/north"/>
    </vehicle>
    <vehicle id="t389" depart="389.00">
        <route edges="center/south south/center center/north"/>
    </vehicle>
    <vehicle id="t392" depart="392.00">
        <route edges="center/west west/center center/south south/center"/>
    </vehicle>
    <vehicle id="t393" depart="393.00">
        <route edges="east/center center/west west/center center/south south/center center/north"/>
    </vehicle>
    <vehicle id="t394" depart="394.00">
        <route edges="center/east east/center center/west west/center center/south"/>
    </vehicle>
    <vehicle id="t396" depart="396.00">
        <route edges="center/north"/>
    </vehicle>
    <vehicle id="t402" depart="402.00">
        <route edges="west/center center/south south/center"/>
    </vehicle>
    <vehicle id="t403" depart="403.00">
        <route edges="center/south south/center center/north north/center"/>
    </vehicle>
    <vehicle id="t404" depart="404.00">
        <route edges="center/south south/center"/>
    </vehicle>
    <vehicle id="t405" depart="405.00">
        <route edges="center/east east/center center/nw"/>
    </vehicle>
    <vehicle id="t406" depart="406.00">
        <route edges="center/east east/center center/west west/center center/south south/center center/north"/>
    </vehicle>
    <vehicle id="t407" depart="407.00">
        <route edges="center/south south/center"/>
    </vehicle>
    <vehicle id="t410" depart="410.00">
        <route edges="west/center center/south south/center"/>
    </vehicle>
    <vehicle id="t411" depart="411.00">
        <route edges="east/center center/west west/center center/south south/center center/north"/>
    </vehicle>
    <vehicle id="t413" depart="413.00">
        <route edges="center/east east/center center/west west/center"/>
    </vehicle>
    <vehicle id="t414" depart="414.00">
        <route edges="west/center"/>
    </vehicle>
    <vehicle id="t416" depart="416.00">
        <route edges="center/west west/center center/south"/>
    </vehicle>
    <vehicle id="t417" depart="417.00">
        <route edges="west/center center/south south/center center/north"/>
    </vehicle>
    <vehicle id="t418" depart="418.00">
        <route edges="south/center"/>
    </vehicle>
    <vehicle id="t419" depart="419.00">
        <route edges="center/north north/center center/south south/center"/>
    </vehicle>
    <vehicle id="t420" depart="420.00">
        <route edges="south/center center/north"/>
    </vehicle>
    <vehicle id="t421" depart="421.00">
        <route edges="center/east east/center center/nw"/>
    </vehicle>
    <vehicle id="t425" depart="425.00">
        <route edges="north/center center/south"/>
    </vehicle>
    <vehicle id="t427" depart="427.00">
        <route edges="center/west west/center center/east east/center center/nw"/>
    </vehicle>
    <vehicle id="t428" depart="428.00">
        <route edges="center/east east/center center/west west/center center/south south/center center/north"/>
    </vehicle>
    <vehicle id="t429" depart="429.00">
        <route edges="west/center center/south south/center center/north north/center"/>
    </vehicle>
    <vehicle id="t430" depart="430.00">
        <route edges="east/center center/west west/center center/south south/center"/>
    </vehicle>
    <vehicle id="t431" depart="431.00">
        <route edges="center/east east/center"/>
    </vehicle>
    <vehicle id="t432" depart="432.00">
        <route edges="center/west west/center"/>