<?xml version="1.0" encoding="UTF-8"?>

<nodes xmlns:xsi="http://www.w3.org/2001/XMLSchema-instance"
 xsi:noNamespaceSchemaLocation="http://sumo.sf.net/xsd/nodes_file.xsd">
   <node id="north" x="0.0" y="500.0" type="priority"/>
   <node id="south" x="0.0" y="-500.0" type="priority"/>
   <node id="east" x="500.0" y="0.0" type="priority"/>
   <node id="west" x="-500.0" y="0.0" type="priority"/>
   <node id="northwest" x="-500.0" y="+500.0" type="priority"/>
   <node id="southeast" x="500.0" y="-500.0" type="priority"/>
   <node id="center" x="0.0" y="0.0" type="trafficlight"/>
</nodes>
