<?xml version="1.0" encoding="iso-8859-1"?>
<configuration xmlns:xsi="http://www.w3.org/2001/XMLSchema-instance"
 xsi:noNamespaceSchemaLocation="http://sumo.sf.net/xsd/sumoConfiguration.xsd">
    <input>
    	<remote-port value="8813"/>
        <net-file value="multilane.net.xml"/>
        <!-- <route-files value="multilane.rou.xml"/> -->
    </input>
    <time>
        <begin value="0"/>
        <end value="7000"/>
    </time>
    <time-to-teleport value="-1"/>
</configuration>
